 14

      N        -0.030565        -2.286069          0.000000
      C         0.015519        -0.959701          0.000000
      C        -1.226525        -0.224452          0.000000
      C         1.246400        -0.208724          0.000000
      C        -1.211926         1.139476          0.000000
      C         1.216848         1.154865          0.000000
      C        -0.002355         1.845396          0.000000
      H        -1.165429        -2.932856          0.000000
      H         0.861111        -2.805842          0.000000
      H        -2.139604        -0.779362          0.000000
      H         2.174696        -0.742373          0.000000
      H        -2.139301         1.679697          0.000000
      H         2.136371         1.707741          0.000000
      H        -0.008202         2.918063          0.000000
