 14

      N         0.000000         0.000000         -2.270557
      C         0.000000        -0.000000         -0.940466
      C         0.000000        -1.237703         -0.217546
      C         0.000000         1.237703         -0.217546
      C         0.000000        -1.217037          1.145098
      C         0.000000         1.217037          1.145098
      C         0.000000        -0.000000          1.839168
      H         0.000000        -0.874626         -2.810128
      H         0.000000         0.874626         -2.810128
      H         0.000000        -2.156153         -0.764524
      H         0.000000         2.156153         -0.764524
      H         0.000000        -2.138967          1.691456
      H         0.000000         2.138967          1.691456
      H         0.000000         0.000000          2.911550
