 14

      N        -2.355851         0.087086         -0.000000
      C        -0.936384        -0.007678         -0.000000
      C        -0.226008        -0.003249         -1.200784
      C        -0.226008        -0.003249          1.200784
      C         1.158366        -0.000255         -1.194161
      C         1.158366        -0.000255          1.194162
      C         1.860042         0.001169          0.000000
      H        -2.744067        -0.377106         -0.824032
      H        -2.744067        -0.377105          0.824032
      H        -0.757006        -0.000268         -2.133543
      H        -0.757006        -0.000267          2.133543
      H         1.688822        -0.000566         -2.127819
      H         1.688821        -0.000565          2.127820
      H         2.933140         0.002659          0.000000
